*SPEF "1481-1998"
*DESIGN "sync_fpu"
*DATE "Thu Dec 28 19:52:19 2017"
*VENDOR "Synopsys, Inc."
*PROGRAM "icc_shell"
*VERSION "G-2012.06-ICC-SP2"
*DESIGN_FLOW "PIN_CAP NONE"
*DIVIDER /
*DELIMITER :
*BUS_DELIMITER [ ]
*T_UNIT 1 NS
*C_UNIT 1 FF
*R_UNIT 1 OHM
*L_UNIT 1 HENRY

*NAME_MAP
*1 A[2]
*2 A[1]
*3 A[0]
*4 VDD
*5 VSS
*6 A[10]
*7 A[9]
*8 A[8]
*9 A[7]
*10 A[6]
*11 A[5]
*12 A[4]
*13 A[3]
*14 A[18]
*15 A[17]
*16 A[16]
*17 A[15]
*18 A[14]
*19 A[13]
*20 A[12]
*21 A[11]
*22 A[26]
*23 A[25]
*24 A[24]
*25 A[23]
*26 A[22]
*27 A[21]
*28 A[20]
*29 A[19]
*30 B[2]
*31 B[1]
*32 B[0]
*33 A[31]
*34 A[30]
*35 A[29]
*36 A[28]
*37 A[27]
*38 B[10]
*39 B[9]
*40 B[8]
*41 B[7]
*42 B[6]
*43 B[5]
*44 B[4]
*45 B[3]
*46 B[18]
*47 B[17]
*48 B[16]
*49 B[15]
*50 B[14]
*51 B[13]
*52 B[12]
*53 B[11]
*54 B[26]
*55 B[25]
*56 B[24]
*57 B[23]
*58 B[22]
*59 B[21]
*60 B[20]
*61 B[19]
*62 product[2]
*63 product[1]
*64 product[0]
*65 B[31]
*66 B[30]
*67 B[29]
*68 B[28]
*69 B[27]
*70 product[10]
*71 product[9]
*72 product[8]
*73 product[7]
*74 product[6]
*75 product[5]
*76 product[4]
*77 product[3]
*78 product[18]
*79 product[17]
*80 product[16]
*81 product[15]
*82 product[14]
*83 product[13]
*84 product[12]
*85 product[11]
*86 product[26]
*87 product[25]
*88 product[24]
*89 product[23]
*90 product[22]
*91 product[21]
*92 product[20]
*93 product[19]
*94 overFlow
*95 rst
*96 clk
*97 product[31]
*98 product[30]
*99 product[29]
*100 product[28]
*101 product[27]
*102 U1
*103 U2
*104 out\[17\]
*105 outRegister/out_reg_17_
*106 fpua/U2094
*107 INV_X32_BC
*108 out\[5\]
*109 outRegister/out_reg_5_
*110 fpua/U2032
*111 out\[19\]
*112 outRegister/out_reg_19_
*113 fpua/U2100
*114 out\[24\]
*115 outRegister/out_reg_24_
*116 fpua/U2114
*117 out\[20\]
*118 outRegister/out_reg_20_
*119 fpua/U2103
*120 out\[22\]
*121 outRegister/out_reg_22_
*122 fpua/U2109
*123 out\[25\]
*124 outRegister/out_reg_25_
*125 fpua/U1201
*126 out\[11\]
*127 outRegister/out_reg_11_
*128 fpua/U2066
*129 out\[23\]
*130 outRegister/out_reg_23_
*131 fpua/U87
*132 out\[14\]
*133 outRegister/out_reg_14_
*134 fpua/U2079
*135 out\[21\]
*136 outRegister/out_reg_21_
*137 fpua/U2108
*138 out\[9\]
*139 outRegister/out_reg_9_
*140 fpua/U2050
*141 out\[10\]
*142 outRegister/out_reg_10_
*143 fpua/U2058
*144 out\[0\]
*145 outRegister/out_reg_0_
*146 fpua/U15
*147 out\[3\]
*148 outRegister/out_reg_3_
*149 fpua/U2024
*150 out\[4\]
*151 outRegister/out_reg_4_
*152 fpua/U2026
*153 out\[13\]
*154 outRegister/out_reg_13_
*155 fpua/U2074
*156 out\[16\]
*157 outRegister/out_reg_16_
*158 fpua/U948
*159 out\[12\]
*160 outRegister/out_reg_12_
*161 fpua/U2071
*162 out\[6\]
*163 outRegister/out_reg_6_
*164 fpua/U1280
*165 out\[1\]
*166 outRegister/out_reg_1_
*167 fpua/U12
*168 out\[8\]
*169 outRegister/out_reg_8_
*170 fpua/U94
*171 out\[2\]
*172 outRegister/out_reg_2_
*173 fpua/U2018
*174 out\[7\]
*175 outRegister/out_reg_7_
*176 fpua/U92
*177 out\[15\]
*178 outRegister/out_reg_15_
*179 fpua/U2085
*180 out\[27\]
*181 outRegister/out_reg_27_
*182 fpua/U2117
*183 out\[26\]
*184 outRegister/out_reg_26_
*185 fpua/U2116
*186 out\[18\]
*187 outRegister/out_reg_18_
*188 fpua/U2097
*189 out\[30\]
*190 outRegister/out_reg_30_
*191 fpua/U2122
*192 out\[29\]
*193 outRegister/out_reg_29_
*194 fpua/U1015
*195 out\[28\]
*196 outRegister/out_reg_28_
*197 fpua/U2120
*198 out\[31\]
*199 outRegister/out_reg_31_
*200 fpua/U43
*201 fpua/sub_45/n89
*202 fpua/sub_45/U251
*203 fpua/sub_45/U151
*204 fpua/sub_45/U99
*205 fpua/sub_45/U78
*206 fpua/sub_45/n227
*207 fpua/sub_45/U3
*208 fpua/sub_45/n129
*209 fpua/sub_45/U250
*210 fpua/sub_45/U247
*211 fpua/sub_45/U155
*212 fpua/sub_45/U74
*213 fpua/sub_45/U19
*214 fpua/sub_45/n42
*215 fpua/sub_45/U193
*216 fpua/sub_45/n224
*217 fpua/sub_45/U249
*218 fpua/sub_45/U13
*219 fpua/sub_45/U8
*220 fpua/sub_45/n50
*221 fpua/sub_45/U248
*222 fpua/sub_45/U15
*223 fpua/sub_45/n6
*224 fpua/sub_45/U30
*225 fpua/sub_45/n220
*226 fpua/sub_45/n46
*227 fpua/sub_45/U114
*228 fpua/sub_45/U105
*229 fpua/sub_45/U89
*230 fpua/sub_45/U51
*231 fpua/sub_45/n125
*232 fpua/sub_45/U217
*233 fpua/sub_45/U73
*234 fpua/sub_45/n37
*235 fpua/sub_45/U246
*236 fpua/sub_45/U90
*237 fpua/sub_45/n33
*238 fpua/sub_45/U68
*239 fpua/sub_45/U14
*240 fpua/sub_45/n19
*241 fpua/sub_45/U245
*242 fpua/sub_45/U141
*243 fpua/sub_45/U102
*244 fpua/sub_45/n208
*245 fpua/sub_45/U146
*246 fpua/sub_45/n207
*247 fpua/sub_45/U244
*248 fpua/sub_45/n127
*249 fpua/sub_45/U69
*250 fpua/sub_45/U26
*251 fpua/sub_45/n12
*252 fpua/sub_45/U243
*253 fpua/sub_45/U187
*254 fpua/sub_45/n180
*255 fpua/sub_45/U86
*256 fpua/sub_45/U65
*257 fpua/sub_45/n14
*258 fpua/sub_45/U242
*259 fpua/sub_45/U182
*260 fpua/sub_45/U108
*261 fpua/sub_45/U96
*262 fpua/sub_45/n203
*263 fpua/sub_45/n8
*264 fpua/sub_45/U241
*265 fpua/sub_45/U186
*266 fpua/sub_45/n201
*267 fpua/sub_45/U84
*268 fpua/sub_45/n10
*269 fpua/sub_45/U240
*270 fpua/sub_45/U180
*271 fpua/sub_45/U83
*272 fpua/sub_45/n202
*273 fpua/sub_45/n196
*274 fpua/sub_45/U239
*275 fpua/sub_45/U85
*276 fpua/sub_45/n198
*277 fpua/sub_45/U98
*278 fpua/N211
*279 fpua/U1670
*280 fpua/sub_45/n157
*281 fpua/sub_45/U238
*282 fpua/sub_45/U149
*283 fpua/sub_45/U67
*284 fpua/sub_45/U55
*285 fpua/sub_45/n197
*286 fpua/sub_45/n152
*287 fpua/sub_45/U237
*288 fpua/sub_45/U124
*289 fpua/sub_45/U66
*290 fpua/sub_45/U5
*291 fpua/sub_45/n193
*292 fpua/sub_45/U235
*293 fpua/sub_45/n156
*294 fpua/sub_45/U236
*295 fpua/sub_45/U139
*296 fpua/sub_45/n183
*297 fpua/sub_45/n192
*298 fpua/sub_45/U82
*299 fpua/sub_45/n188
*300 fpua/sub_45/U234
*301 fpua/sub_45/U168
*302 fpua/sub_45/n187
*303 fpua/sub_45/U233
*304 fpua/sub_45/n186
*305 fpua/sub_45/U42
*306 fpua/sub_45/n184
*307 fpua/sub_45/U40
*308 fpua/sub_45/n176
*309 fpua/sub_45/U232
*310 fpua/sub_45/U230
*311 fpua/sub_45/n178
*312 fpua/sub_45/U79
*313 fpua/N213
*314 fpua/U1664
*315 fpua/sub_45/n177
*316 fpua/sub_45/U231
*317 fpua/sub_45/U152
*318 fpua/sub_45/U116
*319 fpua/sub_45/n174
*320 fpua/sub_45/U70
*321 fpua/sub_45/n175
*322 fpua/sub_45/n173
*323 fpua/sub_45/U229
*324 fpua/sub_45/n168
*325 fpua/sub_45/U225
*326 fpua/sub_45/U62
*327 fpua/sub_45/n146
*328 fpua/sub_45/U228
*329 fpua/sub_45/U132
*330 fpua/sub_45/U34
*331 fpua/sub_45/n170
*332 fpua/sub_45/U226
*333 fpua/sub_45/n154
*334 fpua/sub_45/U227
*335 fpua/sub_45/U176
*336 fpua/sub_45/n150
*337 fpua/sub_45/U33
*338 fpua/sub_45/n169
*339 fpua/N214
*340 fpua/U1666
*341 fpua/sub_45/n164
*342 fpua/sub_45/U224
*343 fpua/sub_45/U77
*344 fpua/sub_45/n165
*345 fpua/sub_45/U81
*346 fpua/N215
*347 fpua/U1640
*348 fpua/sub_45/n133
*349 fpua/sub_45/U223
*350 fpua/sub_45/U21
*351 fpua/sub_45/n123
*352 fpua/sub_45/U10
*353 fpua/sub_45/n151
*354 fpua/sub_45/U222
*355 fpua/sub_45/U185
*356 fpua/sub_45/n145
*357 fpua/sub_45/n141
*358 fpua/sub_45/U221
*359 fpua/sub_45/U32
*360 fpua/sub_45/n69
*361 fpua/sub_45/U220
*362 fpua/sub_45/U36
*363 fpua/sub_45/n3
*364 fpua/sub_45/n117
*365 fpua/sub_45/U9
*366 fpua/sub_45/n128
*367 fpua/sub_45/U219
*368 fpua/sub_45/n122
*369 fpua/sub_45/n72
*370 fpua/sub_45/U218
*371 fpua/sub_45/U203
*372 fpua/sub_45/n119
*373 fpua/sub_45/U215
*374 fpua/sub_45/n121
*375 fpua/sub_45/n71
*376 fpua/sub_45/U216
*377 fpua/sub_45/n120
*378 fpua/sub_45/n118
*379 fpua/sub_45/n105
*380 fpua/sub_45/U214
*381 fpua/sub_45/U161
*382 fpua/sub_45/U47
*383 fpua/sub_45/U44
*384 fpua/sub_45/n110
*385 fpua/sub_45/U212
*386 fpua/sub_45/n104
*387 fpua/sub_45/U213
*388 fpua/sub_45/U145
*389 fpua/sub_45/U64
*390 fpua/sub_45/n94
*391 fpua/sub_45/U23
*392 fpua/sub_45/n109
*393 fpua/sub_45/U58
*394 fpua/sub_45/n107
*395 fpua/sub_45/U211
*396 fpua/sub_45/U63
*397 fpua/sub_45/U59
*398 fpua/sub_45/n76
*399 fpua/sub_45/U28
*400 fpua/sub_45/U24
*401 fpua/sub_45/n99
*402 fpua/sub_45/U210
*403 fpua/sub_45/n98
*404 fpua/sub_45/U43
*405 fpua/sub_45/n97
*406 fpua/sub_45/U209
*407 fpua/sub_45/n95
*408 fpua/sub_45/n86
*409 fpua/sub_45/U208
*410 fpua/sub_45/n85
*411 fpua/sub_45/U49
*412 fpua/sub_45/n64
*413 fpua/sub_45/U207
*414 fpua/sub_45/U133
*415 fpua/sub_45/U75
*416 fpua/sub_45/U54
*417 fpua/sub_45/n78
*418 fpua/sub_45/U29
*419 fpua/sub_45/n84
*420 fpua/sub_45/U206
*421 fpua/sub_45/U131
*422 fpua/sub_45/U72
*423 fpua/sub_45/n80
*424 fpua/sub_45/U25
*425 fpua/sub_45/n83
*426 fpua/sub_45/U205
*427 fpua/sub_45/n81
*428 fpua/sub_45/n63
*429 fpua/sub_45/U204
*430 fpua/sub_45/n79
*431 fpua/sub_45/n67
*432 fpua/sub_45/n70
*433 fpua/sub_45/U202
*434 fpua/sub_45/n68
*435 fpua/sub_45/n66
*436 fpua/sub_45/U201
*437 fpua/sub_45/n65
*438 fpua/sub_45/U200
*439 fpua/sub_45/n60
*440 fpua/sub_45/U129
*441 fpua/sub_45/U37
*442 fpua/sub_45/U7
*443 fpua/sub_45/n57
*444 fpua/sub_45/U35
*445 fpua/sub_45/n62
*446 fpua/sub_45/U199
*447 fpua/sub_45/U143
*448 fpua/sub_45/n61
*449 fpua/sub_45/n54
*450 fpua/sub_45/U198
*451 fpua/sub_45/n55
*452 fpua/sub_45/U137
*453 fpua/N222
*454 fpua/U1074
*455 fpua/sub_45/n53
*456 fpua/sub_45/U197
*457 fpua/sub_45/U103
*458 fpua/sub_45/n51
*459 fpua/sub_45/n45
*460 fpua/sub_45/U196
*461 fpua/sub_45/n49
*462 fpua/N203
*463 fpua/U1889
*464 fpua/sub_45/n48
*465 fpua/sub_45/U195
*466 fpua/sub_45/U135
*467 fpua/sub_45/U46
*468 fpua/sub_45/n47
*469 fpua/sub_45/n44
*470 fpua/sub_45/U194
*471 fpua/sub_45/U48
*472 fpua/sub_45/n43
*473 fpua/sub_45/n41
*474 fpua/sub_45/U97
*475 fpua/sub_45/n36
*476 fpua/sub_45/U192
*477 fpua/sub_45/U162
*478 fpua/sub_45/U91
*479 fpua/sub_45/U17
*480 fpua/sub_45/n34
*481 fpua/sub_45/n24
*482 fpua/sub_45/U191
*483 fpua/sub_45/U174
*484 fpua/sub_45/U118
*485 fpua/sub_45/U16
*486 fpua/sub_45/n20
*487 fpua/sub_45/U189
*488 fpua/sub_45/n23
*489 fpua/sub_45/U190
*490 fpua/sub_45/U100
*491 fpua/sub_45/U88
*492 fpua/sub_45/n21
*493 fpua/sub_45/n22
*494 fpua/sub_45/U94
*495 fpua/sub_45/n16
*496 fpua/sub_45/U188
*497 fpua/sub_45/n17
*498 fpua/N208
*499 fpua/U1747
*500 fpua/sub_45/n13
*501 fpua/N209
*502 fpua/U1688
*503 fpua/sub_45/n9
*504 fpua/N210
*505 fpua/U1669
*506 fpua/n5082
*507 fpua/sub_45/U184
*508 fpua/U1099
*509 fpua/sub_45/n167
*510 fpua/sub_45/U107
*511 fpua/sub_45/n166
*512 fpua/sub_45/U122
*513 fpua/b\[8\]
*514 fpua/sub_45/U183
*515 fpua/add_39/U267
*516 fpua/add_39/U266
*517 fpua/bs/b13_8__M9/U1
*518 fpua/add_39/U265
*519 fpua/add_39/U188
*520 fpua/sub_45/n204
*521 fpua/sub_45/U123
*522 fpua/sub_45/n205
*523 fpua/sub_45/U113
*524 fpua/n5094
*525 fpua/sub_45/U181
*526 fpua/U199
*527 fpua/sub_45/n189
*528 fpua/sub_45/U27
*529 fpua/sub_45/n190
*530 fpua/sub_45/U50
*531 fpua/n5168
*532 fpua/sub_45/U179
*533 fpua/sub_45/U178
*534 fpua/sub_45/U177
*535 fpua/U1190
*536 fpua/sub_45/n218
*537 fpua/sub_45/U148
*538 fpua/sub_45/n30
*539 fpua/sub_45/U101
*540 fpua/sub_45/U95
*541 fpua/sub_45/n32
*542 fpua/sub_45/U153
*543 fpua/sub_45/U119
*544 fpua/sub_45/n215
*545 fpua/b\[13\]
*546 fpua/sub_45/U175
*547 fpua/add_39/U244
*548 fpua/add_39/U243
*549 fpua/add_39/U240
*550 fpua/add_39/U38
*551 fpua/bs/b13_13__M9/U1
*552 fpua/sub_45/n171
*553 fpua/sub_45/U128
*554 fpua/sub_45/n172
*555 fpua/sub_45/n211
*556 fpua/sub_45/U173
*557 fpua/sub_45/U57
*558 fpua/sub_45/n209
*559 fpua/sub_45/n26
*560 fpua/sub_45/U172
*561 fpua/sub_45/n115
*562 fpua/sub_45/U171
*563 fpua/sub_45/U142
*564 fpua/sub_45/U4
*565 fpua/sub_45/n116
*566 fpua/sub_45/U170
*567 fpua/sub_45/U111
*568 fpua/sub_45/n106
*569 fpua/sub_45/U60
*570 fpua/sub_45/n228
*571 fpua/sub_45/U169
*572 fpua/sub_45/n200
*573 fpua/sub_45/U106
*574 fpua/sub_45/n199
*575 fpua/sub_45/U167
*576 fpua/sub_45/n161
*577 fpua/sub_45/U166
*578 fpua/sub_45/U138
*579 fpua/sub_45/n162
*580 fpua/sub_45/U165
*581 fpua/sub_45/U109
*582 fpua/sub_45/n144
*583 fpua/sub_45/U80
*584 fpua/sub_45/n39
*585 fpua/sub_45/U164
*586 fpua/sub_45/U93
*587 fpua/sub_45/n217
*588 fpua/sub_45/U163
*589 fpua/sub_45/U56
*590 fpua/sub_45/n216
*591 fpua/sub_45/n112
*592 fpua/sub_45/U112
*593 fpua/sub_45/n111
*594 fpua/sub_45/U160
*595 fpua/sub_45/n102
*596 fpua/sub_45/U159
*597 fpua/sub_45/U110
*598 fpua/sub_45/n96
*599 fpua/sub_45/n103
*600 fpua/sub_45/U158
*601 fpua/sub_45/n212
*602 fpua/sub_45/U157
*603 fpua/sub_45/n210
*604 fpua/sub_45/U156
*605 fpua/sub_45/U53
*606 fpua/sub_45/n18
*607 fpua/sub_45/n221
*608 fpua/sub_45/U18
*609 fpua/sub_45/n223
*610 fpua/sub_45/U154
*611 fpua/n2745
*612 fpua/add_39/U253
*613 fpua/add_39/U252
*614 fpua/add_39/U251
*615 fpua/add_39/U28
*616 fpua/U1469
*617 fpua/sub_45/n27
*618 fpua/b\[12\]
*619 fpua/sub_45/U121
*620 fpua/add_39/U187
*621 fpua/add_39/U185
*622 fpua/add_39/U180
*623 fpua/add_39/U178
*624 fpua/bs/b13_12__M9/U1
*625 fpua/sub_45/n155
*626 fpua/sub_45/U147
*627 fpua/n3075
*628 fpua/U1481
*629 fpua/U52
*630 fpua/sub_45/n140
*631 fpua/sub_45/U150
*632 fpua/sub_45/U39
*633 fpua/n2633
*634 fpua/add_39/U217
*635 fpua/add_39/U209
*636 fpua/add_39/U208
*637 fpua/U1458
*638 fpua/n1061
*639 fpua/sub_45/U120
*640 fpua/U1454
*641 fpua/n3105
*642 fpua/add_39/U237
*643 fpua/add_39/U197
*644 fpua/add_39/U97
*645 fpua/U1443
*646 fpua/b\[20\]
*647 fpua/sub_45/U144
*648 fpua/add_39/U177
*649 fpua/add_39/U167
*650 fpua/bs/b13_20__M9/U1
*651 fpua/sub_45/n74
*652 fpua/n1063
*653 fpua/sub_45/U130
*654 fpua/add_39/U179
*655 fpua/U1436
*656 fpua/n3047
*657 fpua/add_39/U238
*658 fpua/add_39/U186
*659 fpua/U1445
*660 fpua/sub_45/n113
*661 fpua/n2631
*662 fpua/add_39/U254
*663 fpua/add_39/U202
*664 fpua/add_39/U166
*665 fpua/add_39/U11
*666 fpua/U1464
*667 fpua/b\[11\]
*668 fpua/sub_45/U140
*669 fpua/add_39/U223
*670 fpua/add_39/U183
*671 fpua/add_39/U182
*672 fpua/bs/b13_11__M9/U1
*673 fpua/add_39/U173
*674 fpua/sub_45/n194
*675 fpua/n3089
*676 fpua/sub_45/U125
*677 fpua/U1456
*678 fpua/n3122
*679 fpua/add_39/U207
*680 fpua/add_39/U206
*681 fpua/add_39/U205
*682 fpua/add_39/U204
*683 fpua/U1447
*684 fpua/sub_45/n147
*685 fpua/n1062
*686 fpua/add_39/U184
*687 fpua/add_39/U169
*688 fpua/U1433
*689 fpua/b\[21\]
*690 fpua/bs/b13_21__M9/U1
*691 fpua/b\[2\]
*692 fpua/sub_45/U136
*693 fpua/add_39/U174
*694 fpua/add_39/U168
*695 fpua/bs/b12_2__M8/U1
*696 fpua/sub_45/n222
*697 fpua/n2797
*698 fpua/sub_45/U115
*699 fpua/U1476
*700 fpua/b\[19\]
*701 fpua/sub_45/U134
*702 fpua/sub_45/U126
*703 fpua/add_39/U171
*704 fpua/add_39/U170
*705 fpua/bs/b13_19__M9/U1
*706 fpua/sub_45/n93
*707 fpua/n1059
*708 fpua/sub_45/U127
*709 fpua/U1438
*710 fpua/n1060
*711 fpua/U1451
*712 fpua/n3103
*713 fpua/add_39/U196
*714 fpua/add_39/U175
*715 fpua/U1441
*716 fpua/sub_45/n75
*717 fpua/sub_45/n92
*718 fpua/sub_45/n82
*719 fpua/sub_45/n195
*720 fpua/n2442
*721 fpua/U1462
*722 fpua/sub_45/n15
*723 fpua/sub_45/U41
*724 fpua/n3124
*725 fpua/add_39/U274
*726 fpua/add_39/U272
*727 fpua/add_39/U269
*728 fpua/add_39/U43
*729 fpua/add_39/U5
*730 fpua/U1449
*731 fpua/sub_45/n148
*732 fpua/sub_45/U76
*733 fpua/sub_45/n179
*734 fpua/sub_45/n149
*735 fpua/sub_45/n214
*736 fpua/sub_45/U117
*737 fpua/sub_45/n213
*738 fpua/sub_45/n126
*739 fpua/sub_45/n226
*740 fpua/sub_45/n138
*741 fpua/sub_45/U104
*742 fpua/sub_45/U52
*743 fpua/sub_45/n52
*744 fpua/sub_45/U92
*745 fpua/sub_45/U38
*746 fpua/sub_45/n87
*747 fpua/N202
*748 fpua/U1900
*749 fpua/sub_45/n29
*750 fpua/sub_45/U87
*751 fpua/sub_45/n28
*752 fpua/sub_45/n40
*753 fpua/N204
*754 fpua/U1867
*755 fpua/sub_45/n31
*756 fpua/n3123
*757 fpua/add_39/U239
*758 fpua/add_39/U33
*759 fpua/add_39/U24
*760 fpua/add_39/U14
*761 fpua/U1466
*762 fpua/n2715
*763 fpua/add_39/U226
*764 fpua/add_39/U203
*765 fpua/add_39/U91
*766 fpua/U1471
*767 fpua/sub_45/n35
*768 fpua/n3079
*769 fpua/sub_45/U31
*770 fpua/add_39/U220
*771 fpua/add_39/U30
*772 fpua/U1478
*773 fpua/sub_45/n88
*774 fpua/sub_45/U11
*775 fpua/sub_45/n38
*776 fpua/N205
*777 fpua/U1803
*778 fpua/sub_45/n25
*779 fpua/N207
*780 fpua/U1754
*781 fpua/N206
*782 fpua/U1753
*783 fpua/sub_45/n191
*784 fpua/sub_45/n11
*785 fpua/N212
*786 fpua/U1668
*787 fpua/sub_45/n160
*788 fpua/sub_45/U61
*789 fpua/sub_45/n225
*790 fpua/sub_45/n163
*791 fpua/sub_45/n159
*792 fpua/sub_45/n91
*793 fpua/sub_45/U45
*794 fpua/sub_45/n5
*795 fpua/sub_45/n137
*796 fpua/sub_45/U12
*797 fpua/sub_45/n219
*798 fpua/sub_45/n101
*799 fpua/sub_45/U71
*800 fpua/sub_45/n100
*801 fpua/N219
*802 fpua/U1515
*803 fpua/sub_45/n206
*804 fpua/sub_45/n124
*805 fpua/sub_45/U20
*806 fpua/sub_45/n158
*807 fpua/sub_45/n182
*808 fpua/sub_45/n181
*809 fpua/sub_45/n2
*810 fpua/sub_45/n108
*811 fpua/N216
*812 fpua/U1557
*813 fpua/sub_45/n114
*814 fpua/N217
*815 fpua/U1556
*816 fpua/N218
*817 fpua/U1046
*818 fpua/sub_45/n153
*819 fpua/sub_45/n59
*820 fpua/sub_45/n139
*821 fpua/sub_45/n135
*822 fpua/sub_45/U22
*823 fpua/n3085
*824 fpua/add_39/U262
*825 fpua/add_39/U261
*826 fpua/add_39/U260
*827 fpua/U1460
*828 fpua/n2659
*829 fpua/add_39/U191
*830 fpua/add_39/U19
*831 fpua/U1473
*832 fpua/sub_45/n90
*833 fpua/N220
*834 fpua/U1047
*835 fpua/sub_45/n185
*836 fpua/sub_45/n7
*837 fpua/sub_45/n134
*838 fpua/sub_45/n58
*839 fpua/sub_45/n56
*840 fpua/sub_45/n143
*841 fpua/sub_45/n142
*842 fpua/sub_45/n77
*843 fpua/sub_45/n73
*844 fpua/sub_45/U6
*845 fpua/sub_45/n136
*846 fpua/sub_45/n130
*847 fpua/sub_45/n132
*848 fpua/sub_45/n131
*849 fpua/sub_45/n4
*850 fpua/N221
*851 fpua/U1517
*852 fpua/N201
*853 fpua/U1487
*854 fpua/add_39/n152
*855 fpua/add_39/U280
*856 fpua/add_39/U210
*857 fpua/add_39/n324
*858 fpua/add_39/U279
*859 fpua/add_39/n150
*860 fpua/add_39/U278
*861 fpua/add_39/n153
*862 fpua/add_39/U60
*863 fpua/add_39/n58
*864 fpua/add_39/n149
*865 fpua/add_39/n151
*866 fpua/add_39/U10
*867 fpua/add_39/n146
*868 fpua/add_39/U276
*869 fpua/add_39/n265
*870 fpua/add_39/U277
*871 fpua/add_39/U222
*872 fpua/add_39/n29
*873 fpua/add_39/U228
*874 fpua/add_39/n148
*875 fpua/add_39/U255
*876 fpua/add_39/n315
*877 fpua/add_39/U22
*878 fpua/add_39/U21
*879 fpua/add_39/n145
*880 fpua/add_39/U258
*881 fpua/add_39/n264
*882 fpua/add_39/U275
*883 fpua/add_39/U195
*884 fpua/add_39/U194
*885 fpua/add_39/n263
*886 fpua/add_39/n262
*887 fpua/add_39/U250
*888 fpua/b\[14\]
*889 fpua/bs/b13_14__M9/U1
*890 fpua/add_39/n218
*891 fpua/add_39/U273
*892 fpua/add_39/n217
*893 fpua/add_39/n216
*894 fpua/add_39/U181
*895 fpua/add_39/n13
*896 fpua/add_39/U131
*897 fpua/add_39/U70
*898 fpua/add_39/n134
*899 fpua/add_39/U211
*900 fpua/add_39/U84
*901 fpua/add_39/n125
*902 fpua/add_39/U271
*903 fpua/add_39/U259
*904 fpua/add_39/n126
*905 fpua/add_39/U241
*906 fpua/add_39/n100
*907 fpua/add_39/U270
*908 fpua/add_39/n102
*909 fpua/add_39/U48
*910 fpua/add_39/n101
*911 fpua/add_39/U268
*912 fpua/N188
*913 fpua/U1289
*914 fpua/U1288
*915 fpua/add_39/n244
*916 fpua/add_39/U133
*917 fpua/add_39/U130
*918 fpua/add_39/n110
*919 fpua/add_39/U264
*920 fpua/add_39/n111
*921 fpua/add_39/U257
*922 fpua/add_39/n270
*923 fpua/add_39/U221
*924 fpua/add_39/n70
*925 fpua/add_39/U149
*926 fpua/add_39/U140
*927 fpua/add_39/n114
*928 fpua/add_39/U256
*929 fpua/add_39/n115
*930 fpua/add_39/n116
*931 fpua/add_39/U100
*932 fpua/add_39/n122
*933 fpua/add_39/U263
*934 fpua/add_39/U65
*935 fpua/add_39/U64
*936 fpua/add_39/U15
*937 fpua/add_39/n325
*938 fpua/add_39/U225
*939 fpua/add_39/U224
*940 fpua/add_39/U34
*941 fpua/add_39/n121
*942 fpua/add_39/U246
*943 fpua/b\[9\]
*944 fpua/bs/b13_9__M9/U1
*945 fpua/add_39/n267
*946 fpua/add_39/U88
*947 fpua/add_39/n66
*948 fpua/add_39/U136
*949 fpua/add_39/n137
*950 fpua/add_39/n138
*951 fpua/add_39/U232
*952 fpua/add_39/n144
*953 fpua/add_39/U20
*954 fpua/add_39/n112
*955 fpua/add_39/U199
*956 fpua/add_39/U71
*957 fpua/add_39/n113
*958 fpua/add_39/U115
*959 fpua/add_39/n117
*960 fpua/add_39/U245
*961 fpua/add_39/n52
*962 fpua/add_39/U101
*963 fpua/add_39/n227
*964 fpua/add_39/U231
*965 fpua/b\[7\]
*966 fpua/add_39/U12
*967 fpua/bs/b13_7__M9/U1
*968 fpua/add_39/n292
*969 fpua/add_39/U233
*970 fpua/add_39/U8
*971 fpua/b\[5\]
*972 fpua/bs/b12_5__M8/U1
*973 fpua/add_39/n80
*974 fpua/add_39/U157
*975 fpua/add_39/U152
*976 fpua/add_39/n212
*977 fpua/add_39/U216
*978 fpua/add_39/U158
*979 fpua/add_39/n15
*980 fpua/add_39/U146
*981 fpua/add_39/n141
*982 fpua/add_39/U234
*983 fpua/add_39/U9
*984 fpua/add_39/U3
*985 fpua/add_39/n200
*986 fpua/add_39/U249
*987 fpua/add_39/U132
*988 fpua/add_39/n201
*989 fpua/add_39/U248
*990 fpua/add_39/U247
*991 fpua/add_39/n187
*992 fpua/add_39/U236
*993 fpua/add_39/U235
*994 fpua/add_39/n204
*995 fpua/add_39/U111
*996 fpua/add_39/n202
*997 fpua/add_39/U109
*998 fpua/add_39/n196
*999 fpua/add_39/U118
*1000 fpua/add_39/n205
*1001 fpua/add_39/U110
*1002 fpua/add_39/n99
*1003 fpua/add_39/U67
*1004 fpua/add_39/U66
*1005 fpua/add_39/n119
*1006 fpua/add_39/n120
*1007 fpua/add_39/U94
*1008 fpua/add_39/U17
*1009 fpua/add_39/n92
*1010 fpua/add_39/U63
*1011 fpua/add_39/n118
*1012 fpua/add_39/U105
*1013 fpua/add_39/n45
*1014 fpua/add_39/U95
*1015 fpua/add_39/U86
*1016 fpua/add_39/n215
*1017 fpua/add_39/n132
*1018 fpua/add_39/U242
*1019 fpua/add_39/n131
*1020 fpua/add_39/U99
*1021 fpua/add_39/n127
*1022 fpua/add_39/n350
*1023 fpua/add_39/U79
*1024 fpua/add_39/n42
*1025 fpua/add_39/U81
*1026 fpua/add_39/U55
*1027 fpua/add_39/U50
*1028 fpua/add_39/n250
*1029 fpua/add_39/U145
*1030 fpua/add_39/U125
*1031 fpua/b\[6\]
*1032 fpua/add_39/U13
*1033 fpua/bs/b12_6__M8/U1
*1034 fpua/add_39/n34
*1035 fpua/add_39/U192
*1036 fpua/add_39/U104
*1037 fpua/add_39/U62
*1038 fpua/b\[16\]
*1039 fpua/bs/b13_16__M9/U1
*1040 fpua/b\[18\]
*1041 fpua/bs/b13_18__M9/U1
*1042 fpua/b\[17\]
*1043 fpua/add_39/U218
*1044 fpua/bs/b13_17__M9/U1
*1045 fpua/add_39/n176
*1046 fpua/add_39/U32
*1047 fpua/add_39/n345
*1048 fpua/add_39/U93
*1049 fpua/add_39/n189
*1050 fpua/add_39/U219
*1051 fpua/add_39/U200
*1052 fpua/add_39/n194
*1053 fpua/add_39/U117
*1054 fpua/add_39/n143
*1055 fpua/add_39/U214
*1056 fpua/add_39/n260
*1057 fpua/add_39/U159
*1058 fpua/add_39/n63
*1059 fpua/add_39/n317
*1060 fpua/add_39/U7
*1061 fpua/add_39/n291
*1062 fpua/add_39/n139
*1063 fpua/add_39/n60
*1064 fpua/add_39/U54
*1065 fpua/add_39/n87
*1066 fpua/add_39/U156
*1067 fpua/add_39/U61
*1068 fpua/add_39/U6
*1069 fpua/add_39/n290
*1070 fpua/add_39/U153
*1071 fpua/add_39/n234
*1072 fpua/add_39/U230
*1073 fpua/add_39/U103
*1074 fpua/add_39/n74
*1075 fpua/add_39/U229
*1076 fpua/add_39/n282
*1077 fpua/add_39/U227
*1078 fpua/add_39/n73
*1079 fpua/add_39/U201
*1080 fpua/add_39/n72
*1081 fpua/add_39/U150
*1082 fpua/add_39/n268
*1083 fpua/add_39/n362
*1084 fpua/add_39/U59
*1085 fpua/add_39/U36
*1086 fpua/add_39/n335
*1087 fpua/add_39/U52
*1088 fpua/add_39/n67
*1089 fpua/add_39/U148
*1090 fpua/add_39/U58
*1091 fpua/b\[4\]
*1092 fpua/bs/b12_4__M8/U1
*1093 fpua/add_39/n295
*1094 fpua/add_39/U189
*1095 fpua/N165
*1096 fpua/U1486
*1097 fpua/add_39/n361
*1098 fpua/add_39/U161
*1099 fpua/add_39/n269
*1100 fpua/add_39/n25
*1101 fpua/add_39/U87
*1102 fpua/add_39/U18
*1103 fpua/b\[1\]
*1104 fpua/bs/b12_1__M8/U1
*1105 fpua/add_39/n356
*1106 fpua/add_39/U114
*1107 fpua/add_39/n365
*1108 fpua/b\[10\]
*1109 fpua/bs/b13_10__M9/U1
*1110 fpua/add_39/n53
*1111 fpua/add_39/U215
*1112 fpua/add_39/n274
*1113 fpua/add_39/U142
*1114 fpua/add_39/n271
*1115 fpua/add_39/U143
*1116 fpua/add_39/n352
*1117 fpua/add_39/n261
*1118 fpua/add_39/n20
*1119 fpua/add_39/U213
*1120 fpua/add_39/U135
*1121 fpua/add_39/n224
*1122 fpua/add_39/U126
*1123 fpua/add_39/U102
*1124 fpua/add_39/n23
*1125 fpua/add_39/U89
*1126 fpua/add_39/n226
*1127 fpua/add_39/U107
*1128 fpua/add_39/n133
*1129 fpua/add_39/U212
*1130 fpua/add_39/n230
*1131 fpua/add_39/U106
*1132 fpua/add_39/n229
*1133 fpua/add_39/U83
*1134 fpua/add_39/n84
*1135 fpua/add_39/n287
*1136 fpua/b\[15\]
*1137 fpua/bs/b13_15__M9/U1
*1138 fpua/add_39/n136
*1139 fpua/add_39/U42
*1140 fpua/add_39/n75
*1141 fpua/add_39/U193
*1142 fpua/add_39/U4
*1143 fpua/add_39/n285
*1144 fpua/add_39/n355
*1145 fpua/add_39/U92
*1146 fpua/add_39/n175
*1147 fpua/add_39/U198
*1148 fpua/add_39/n174
*1149 fpua/add_39/n3
*1150 fpua/add_39/U72
*1151 fpua/add_39/n172
*1152 fpua/add_39/U113
*1153 fpua/add_39/n182
*1154 fpua/add_39/U119
*1155 fpua/add_39/n186
*1156 fpua/add_39/n342
*1157 fpua/add_39/U137
*1158 fpua/add_39/n354
*1159 fpua/add_39/n65
*1160 fpua/add_39/U154
*1161 fpua/add_39/n76
*1162 fpua/add_39/n71
*1163 fpua/add_39/n78
*1164 fpua/add_39/U147
*1165 fpua/b\[3\]
*1166 fpua/bs/b12_3__M8/U1
*1167 fpua/add_39/n366
*1168 fpua/add_39/U190
*1169 fpua/add_39/n314
*1170 fpua/add_39/U16
*1171 fpua/add_39/n69
*1172 fpua/add_39/U141
*1173 fpua/add_39/n257
*1174 fpua/add_39/U139
*1175 fpua/add_39/n223
*1176 fpua/add_39/n161
*1177 fpua/add_39/U116
*1178 fpua/add_39/U98
*1179 fpua/add_39/n135
*1180 fpua/add_39/n364
*1181 fpua/add_39/U80
*1182 fpua/add_39/U69
*1183 fpua/add_39/n12
*1184 fpua/add_39/U123
*1185 fpua/add_39/n351
*1186 fpua/b\[22\]
*1187 fpua/add_39/U176
*1188 fpua/add_39/U172
*1189 fpua/bs/b13_22__M9/U1
*1190 fpua/a_22_
*1191 fpua/U1430
*1192 fpua/add_39/n109
*1193 fpua/add_39/U96
*1194 fpua/add_39/U78
*1195 fpua/add_39/n22
*1196 fpua/add_39/U165
*1197 fpua/add_39/U162
*1198 fpua/add_39/n107
*1199 fpua/add_39/U77
*1200 fpua/add_39/n173
*1201 fpua/add_39/n129
*1202 fpua/add_39/U73
*1203 fpua/add_39/n94
*1204 fpua/add_39/U164
*1205 fpua/add_39/n130
*1206 fpua/add_39/U76
*1207 fpua/add_39/U75
*1208 fpua/add_39/U46
*1209 fpua/add_39/n363
*1210 fpua/add_39/n95
*1211 fpua/add_39/U160
*1212 fpua/add_39/n88
*1213 fpua/add_39/U163
*1214 fpua/add_39/n89
*1215 fpua/N168
*1216 fpua/add_39/n93
*1217 fpua/add_39/n178
*1218 fpua/N166
*1219 fpua/N167
*1220 fpua/add_39/n360
*1221 fpua/add_39/U144
*1222 fpua/add_39/n276
*1223 fpua/add_39/n82
*1224 fpua/add_39/U151
*1225 fpua/add_39/n86
*1226 fpua/add_39/U155
*1227 fpua/add_39/n327
*1228 fpua/N169
*1229 fpua/add_39/n64
*1230 fpua/N174
*1231 fpua/add_39/n81
*1232 fpua/add_39/n79
*1233 fpua/add_39/n77
*1234 fpua/N170
*1235 fpua/N172
*1236 fpua/add_39/n68
*1237 fpua/N173
*1238 fpua/N171
*1239 fpua/add_39/n359
*1240 fpua/add_39/n252
*1241 fpua/add_39/U128
*1242 fpua/add_39/n272
*1243 fpua/N176
*1244 fpua/N175
*1245 fpua/add_39/n344
*1246 fpua/add_39/n343
*1247 fpua/add_39/U57
*1248 fpua/add_39/n347
*1249 fpua/add_39/U122
*1250 fpua/add_39/n258
*1251 fpua/add_39/U138
*1252 fpua/add_39/n256
*1253 fpua/add_39/U124
*1254 fpua/N177
*1255 fpua/add_39/n246
*1256 fpua/add_39/U134
*1257 fpua/add_39/U129
*1258 fpua/add_39/n225
*1259 fpua/add_39/n245
*1260 fpua/add_39/n241
*1261 fpua/add_39/U121
*1262 fpua/add_39/n197
*1263 fpua/add_39/n203
*1264 fpua/add_39/n242
*1265 fpua/add_39/n247
*1266 fpua/N179
*1267 fpua/add_39/n251
*1268 fpua/add_39/U127
*1269 fpua/N178
*1270 fpua/add_39/n340
*1271 fpua/add_39/n357
*1272 fpua/add_39/n341
*1273 fpua/add_39/n346
*1274 fpua/N180
*1275 fpua/add_39/n337
*1276 fpua/add_39/U120
*1277 fpua/add_39/U47
*1278 fpua/add_39/n183
*1279 fpua/add_39/n179
*1280 fpua/add_39/U112
*1281 fpua/add_39/n195
*1282 fpua/add_39/n190
*1283 fpua/add_39/U108
*1284 fpua/add_39/n162
*1285 fpua/add_39/U90
*1286 fpua/add_39/n180
*1287 fpua/add_39/n191
*1288 fpua/N184
*1289 fpua/N181
*1290 fpua/N182
*1291 fpua/N183
*1292 fpua/add_39/n236
*1293 fpua/add_39/n233
*1294 fpua/add_39/n232
*1295 fpua/add_39/n123
*1296 fpua/add_39/U68
*1297 fpua/add_39/n286
*1298 fpua/add_39/n19
*1299 fpua/add_39/n323
*1300 fpua/add_39/n348
*1301 fpua/add_39/U41
*1302 fpua/add_39/n358
*1303 fpua/add_39/n156
*1304 fpua/add_39/U82
*1305 fpua/add_39/n237
*1306 fpua/add_39/U85
*1307 fpua/add_39/n36
*1308 fpua/N186
*1309 fpua/add_39/n238
*1310 fpua/add_39/n266
*1311 fpua/add_39/n30
*1312 fpua/add_39/n235
*1313 fpua/add_39/n21
*1314 fpua/add_39/n228
*1315 fpua/add_39/n208
*1316 fpua/add_39/U51
*1317 fpua/add_39/U56
*1318 fpua/add_39/n155
*1319 fpua/N187
*1320 fpua/U1073
*1321 fpua/U169
*1322 fpua/add_39/n104
*1323 fpua/add_39/U53
*1324 fpua/add_39/n103
*1325 fpua/add_39/n353
*1326 fpua/add_39/n105
*1327 fpua/add_39/n349
*1328 fpua/add_39/n339
*1329 fpua/add_39/U49
*1330 fpua/add_39/n160
*1331 fpua/add_39/U74
*1332 fpua/add_39/n338
*1333 fpua/add_39/n169
*1334 fpua/add_39/n300
*1335 fpua/add_39/n296
*1336 fpua/add_39/n297
*1337 fpua/add_39/n97
*1338 fpua/add_39/n336
*1339 fpua/add_39/n222
*1340 fpua/add_39/n307
*1341 fpua/add_39/n9
*1342 fpua/add_39/n38
*1343 fpua/add_39/U45
*1344 fpua/add_39/n334
*1345 fpua/add_39/n209
*1346 fpua/add_39/U40
*1347 fpua/add_39/n43
*1348 fpua/add_39/n167
*1349 fpua/add_39/n333
*1350 fpua/N185
*1351 fpua/add_39/n331
*1352 fpua/add_39/n330
*1353 fpua/b\[0\]
*1354 fpua/bs/b12_0__M8/U1
*1355 fpua/add_39/n313
*1356 fpua/add_39/n312
*1357 fpua/add_39/n311
*1358 fpua/add_39/n310
*1359 fpua/add_39/n309
*1360 fpua/add_39/n308
*1361 fpua/bs/a3_22_
*1362 fpua/bs/b10_22__M7/U1
*1363 fpua/bs/a3_21_
*1364 fpua/bs/b10_21__M7/U1
*1365 fpua/bs/a3_20_
*1366 fpua/bs/b10_20__M7/U1
*1367 fpua/bs/a3_19_
*1368 fpua/bs/b10_19__M7/U1
*1369 fpua/bs/a3_18_
*1370 fpua/bs/b10_18__M7/U1
*1371 fpua/bs/a3_17_
*1372 fpua/bs/b10_17__M7/U1
*1373 fpua/bs/a3_16_
*1374 fpua/bs/b10_16__M7/U1
*1375 fpua/bs/a3_15_
*1376 fpua/bs/b10_15__M7/U1
*1377 fpua/bs/a3_14_
*1378 fpua/bs/b9_14__M6/U1
*1379 fpua/bs/a3_13_
*1380 fpua/bs/b9_13__M6/U1
*1381 fpua/bs/a3_12_
*1382 fpua/bs/b9_12__M6/U1
*1383 fpua/bs/a3_11_
*1384 fpua/bs/b9_11__M6/U1
*1385 fpua/bs/a3_10_
*1386 fpua/bs/b9_10__M6/U3
*1387 fpua/bs/a3_9_
*1388 fpua/bs/b9_9__M6/U1
*1389 fpua/bs/a3_8_
*1390 fpua/bs/b9_8__M6/U1
*1391 fpua/bs/a3_7_
*1392 fpua/bs/b9_7__M6/U1
*1393 fpua/bs/a3_6_
*1394 fpua/bs/b9_6__M6/U3
*1395 fpua/bs/a3_5_
*1396 fpua/bs/b9_5__M6/U1
*1397 fpua/bs/a3_4_
*1398 fpua/bs/b9_4__M6/U1
*1399 fpua/bs/a3_3_
*1400 fpua/bs/b9_3__M6/U1
*1401 fpua/bs/a3_2_
*1402 fpua/bs/b9_2__M6/U1
*1403 fpua/bs/a3_1_
*1404 fpua/bs/b9_1__M6/U1
*1405 fpua/bs/a3_0_
*1406 fpua/bs/b9_0__M6/U1
*1407 fpua/bs/a2_22_
*1408 fpua/bs/b8_22__M5/U1
*1409 fpua/bs/n6
*1410 fpua/bs/U6
*1411 fpua/bs/a2_21_
*1412 fpua/bs/b8_21__M5/U1
*1413 fpua/bs/a2_20_
*1414 fpua/bs/b8_20__M5/U1
*1415 fpua/bs/a2_19_
*1416 fpua/bs/b8_19__M5/U1
*1417 fpua/bs/a2_18_
*1418 fpua/bs/b9_10__M6/U2
*1419 fpua/bs/b7_18__M4/U1
*1420 fpua/bs/a2_17_
*1421 fpua/bs/b7_17__M4/U1
*1422 fpua/bs/a2_16_
*1423 fpua/bs/b7_16__M4/U1
*1424 fpua/bs/a2_15_
*1425 fpua/bs/b7_15__M4/U1
*1426 fpua/bs/a2_14_
*1427 fpua/bs/b9_6__M6/U2
*1428 fpua/bs/b7_14__M4/U1
*1429 fpua/bs/a2_13_
*1430 fpua/bs/b7_13__M4/U3
*1431 fpua/bs/a2_12_
*1432 fpua/bs/b7_12__M4/U3
*1433 fpua/bs/a2_11_
*1434 fpua/bs/b7_11__M4/U1
*1435 fpua/bs/b9_10__M6/n3
*1436 fpua/bs/b9_10__M6/n2
*1437 fpua/bs/b9_10__M6/U1
*1438 fpua/bs/a2_10_
*1439 fpua/bs/b7_10__M4/U3
*1440 fpua/bs/a2_9_